@<TRIPOS>MOLECULE
*****
   37    38     0     0     0
SMALL
USER_CHARGES

@<TRIPOS>ATOM
      1 C1         -0.4633   -0.0097    2.6643 C.3       1 <0>        -0.0580
      2 C2          0.7281   -0.5516    1.9494 C.ar      1 <0>        -0.0293
      3 C3          1.7639   -1.1452    2.6708 C.ar      1 <0>        -0.1745
      4 C4          2.8783   -1.6520    2.0022 C.ar      1 <0>         0.1285
      5 O1          3.8891   -2.2317    2.7057 O.3       1 <0>        -0.2461
      6 C5          5.1874   -1.8864    2.3700 C.ar      1 <0>         0.1167
      7 C6          6.1623   -2.8761    2.2442 C.ar      1 <0>        -0.1179
      8 C7          7.4699   -2.5280    1.9058 C.ar      1 <0>        -0.0898
      9 C8          8.4865   -3.5599    1.7752 C.2       1 <0>         0.6508
     10 O2          7.9962   -4.8069    2.0155 O.3       1 <0>        -0.6055
     11 O3          9.6707   -3.3653    1.4821 O.2       1 <0>        -0.5449
     12 C9          7.8028   -1.1902    1.6933 C.ar      1 <0>        -0.1135
     13 C10         6.8279   -0.2005    1.8192 C.ar      1 <0>         0.1294
     14 O4          7.1527    1.1049    1.6116 O.3       1 <0>        -0.3205
     15 C11         6.1074    2.0651    1.7567 C.3       1 <0>         0.1111
     16 C12         5.5202   -0.5486    2.1575 C.ar      1 <0>        -0.2087
     17 C13         2.9568   -1.5651    0.6122 C.ar      1 <0>        -0.2481
     18 C14         1.9210   -0.9714   -0.1091 C.ar      1 <0>         0.1481
     19 O5          1.9981   -0.8862   -1.4654 O.3       1 <0>        -0.3250
     20 C15         3.1657   -1.4239   -2.0844 C.3       1 <0>         0.1116
     21 C16         0.8067   -0.4646    0.5595 C.ar      1 <0>        -0.1705
     22 H1         -1.2278   -0.7867    2.7604 H         1 <0>         0.0496
     23 H2         -0.1914    0.3451    3.6640 H         1 <0>         0.0496
     24 H3         -0.8898    0.8418    2.1235 H         1 <0>         0.0496
     25 H4          1.7054   -1.2149    3.7543 H         1 <0>         0.1527
     26 H5          5.8981   -3.9178    2.4110 H         1 <0>         0.1757
     27 H6          8.6747   -5.5103    1.9307 H         1 <0>         0.4479
     28 H7          8.8209   -0.9139    1.4293 H         1 <0>         0.1758
     29 H8          6.5096    3.0585    1.5628 H         1 <0>         0.0492
     30 H9          5.7080    2.0038    2.7683 H         1 <0>         0.0492
     31 H10         5.3253    1.8347    1.0348 H         1 <0>         0.0492
     32 H11         4.7603    0.2225    2.2554 H         1 <0>         0.1592
     33 H12         3.8253   -1.9600    0.0910 H         1 <0>         0.1535
     34 H13         3.0904   -1.2866   -3.1622 H         1 <0>         0.0475
     35 H14         3.2425   -2.4820   -1.8370 H         1 <0>         0.0475
     36 H15         4.0349   -0.8900   -1.7028 H         1 <0>         0.0475
     37 H16         0.0010   -0.0018   -0.0052 H         1 <0>         0.1527
@<TRIPOS>BOND
     1    1    2 1
     2    2   21 ar
     3    2    3 ar
     4    3    4 ar
     5    4    5 1
     6    5    6 1
     7    6   16 ar
     8    6    7 ar
     9    7    8 ar
    10    8    9 1
    11    9   10 1
    12    9   11 2
    13    8   12 ar
    14   12   13 ar
    15   13   14 1
    16   14   15 1
    17   13   16 ar
    18    4   17 ar
    19   17   18 ar
    20   18   19 1
    21   19   20 1
    22   18   21 ar
    23    1   22 1
    24    1   23 1
    25    1   24 1
    26    3   25 1
    27    7   26 1
    28   10   27 1
    29   12   28 1
    30   15   29 1
    31   15   30 1
    32   15   31 1
    33   16   32 1
    34   17   33 1
    35   20   34 1
    36   20   35 1
    37   20   36 1
    38   21   37 1
